<routes>
        <vType id="carA" accel="100.0" decel="100.0" sigma="0.0" length="6" minGap="0.0" maxSpeed="30"/>

        <route id="route01" edges="o1 1 -2 o-2"/>
        <route id="route02" edges="o1 1 -3 o-3"/>
        <route id="route03" edges="o1 1 -4 o-4"/>
        <route id="route04" edges="o2 2 -3 o-3"/>
        <route id="route05" edges="o2 2 -4 o-4"/>
        <route id="route06" edges="o2 2 -1 o-1"/>
        <route id="route07" edges="o3 3 -4 o-4"/>
        <route id="route08" edges="o3 3 -1 o-1"/>
        <route id="route09" edges="o3 3 -2 o-2"/>
        <route id="route10" edges="o4 4 -1 o-1"/>
        <route id="route11" edges="o4 4 -2 o-2"/>
        <route id="route12" edges="o4 4 -3 o-3"/>
    <vehicle id="R_0" type="carA" route="route01" depart="0" />
    <vehicle id="S_1" type="carA" route="route05" depart="0" />
    <vehicle id="L_2" type="carA" route="route03" depart="1" />
    <vehicle id="R_3" type="carA" route="route04" depart="1" />
    <vehicle id="R_4" type="carA" route="route10" depart="1" />
    <vehicle id="L_5" type="carA" route="route09" depart="2" />
    <vehicle id="S_6" type="carA" route="route02" depart="3" />
    <vehicle id="S_7" type="carA" route="route11" depart="3" />
    <vehicle id="R_8" type="carA" route="route04" depart="4" />
    <vehicle id="R_9" type="carA" route="route10" depart="7" />
    <vehicle id="R_10" type="carA" route="route01" depart="8" />
    <vehicle id="R_11" type="carA" route="route04" depart="8" />
    <vehicle id="L_12" type="carA" route="route09" depart="8" />
    <vehicle id="R_13" type="carA" route="route04" depart="9" />
    <vehicle id="S_14" type="carA" route="route05" depart="10" />
    <vehicle id="L_15" type="carA" route="route09" depart="10" />
    <vehicle id="R_16" type="carA" route="route04" depart="12" />
    <vehicle id="R_17" type="carA" route="route07" depart="12" />
    <vehicle id="S_18" type="carA" route="route11" depart="12" />
    <vehicle id="L_19" type="carA" route="route06" depart="13" />
    <vehicle id="R_20" type="carA" route="route04" depart="14" />
    <vehicle id="L_21" type="carA" route="route12" depart="14" />
    <vehicle id="S_22" type="carA" route="route08" depart="15" />
    <vehicle id="R_23" type="carA" route="route01" depart="16" />
    <vehicle id="L_24" type="carA" route="route06" depart="16" />
    <vehicle id="L_25" type="carA" route="route03" depart="17" />
    <vehicle id="S_26" type="carA" route="route05" depart="18" />
    <vehicle id="L_27" type="carA" route="route03" depart="19" />
    <vehicle id="L_28" type="carA" route="route06" depart="19" />
    <vehicle id="L_29" type="carA" route="route06" depart="20" />
    <vehicle id="S_30" type="carA" route="route08" depart="20" />
    <vehicle id="L_31" type="carA" route="route03" depart="21" />
    <vehicle id="S_32" type="carA" route="route08" depart="21" />
    <vehicle id="R_33" type="carA" route="route07" depart="22" />
    <vehicle id="S_34" type="carA" route="route11" depart="22" />
    <vehicle id="R_35" type="carA" route="route07" depart="23" />
    <vehicle id="L_36" type="carA" route="route06" depart="24" />
    <vehicle id="S_37" type="carA" route="route08" depart="24" />
    <vehicle id="L_38" type="carA" route="route03" depart="25" />
    <vehicle id="S_39" type="carA" route="route08" depart="25" />
    <vehicle id="L_40" type="carA" route="route03" depart="26" />
    <vehicle id="R_41" type="carA" route="route07" depart="26" />
    <vehicle id="R_42" type="carA" route="route10" depart="27" />
    <vehicle id="R_43" type="carA" route="route07" depart="28" />
    <vehicle id="L_44" type="carA" route="route12" depart="28" />
    <vehicle id="S_45" type="carA" route="route02" depart="29" />
    <vehicle id="R_46" type="carA" route="route07" depart="29" />
    <vehicle id="R_47" type="carA" route="route01" depart="30" />
    <vehicle id="R_48" type="carA" route="route07" depart="31" />
    <vehicle id="L_49" type="carA" route="route06" depart="33" />
    <vehicle id="R_50" type="carA" route="route01" depart="34" />
    <vehicle id="R_51" type="carA" route="route10" depart="34" />
    <vehicle id="S_52" type="carA" route="route02" depart="36" />
    <vehicle id="L_53" type="carA" route="route06" depart="37" />
    <vehicle id="L_54" type="carA" route="route09" depart="37" />
    <vehicle id="L_55" type="carA" route="route12" depart="37" />
    <vehicle id="S_56" type="carA" route="route05" depart="38" />
    <vehicle id="R_57" type="carA" route="route01" depart="40" />
    <vehicle id="L_58" type="carA" route="route06" depart="41" />
    <vehicle id="S_59" type="carA" route="route02" depart="42" />
    <vehicle id="R_60" type="carA" route="route04" depart="42" />
    <vehicle id="R_61" type="carA" route="route01" depart="43" />
    <vehicle id="L_62" type="carA" route="route09" depart="43" />
    <vehicle id="S_63" type="carA" route="route02" depart="45" />
    <vehicle id="L_64" type="carA" route="route06" depart="45" />
    <vehicle id="R_65" type="carA" route="route10" depart="45" />
    <vehicle id="L_66" type="carA" route="route06" depart="46" />
    <vehicle id="R_67" type="carA" route="route01" depart="47" />
    <vehicle id="S_68" type="carA" route="route05" depart="47" />
    <vehicle id="S_69" type="carA" route="route05" depart="48" />
    <vehicle id="S_70" type="carA" route="route08" depart="49" />
    <vehicle id="L_71" type="carA" route="route12" depart="49" />
    <vehicle id="R_72" type="carA" route="route04" depart="50" />
    <vehicle id="L_73" type="carA" route="route09" depart="50" />
    <vehicle id="L_74" type="carA" route="route12" depart="50" />
    <vehicle id="L_75" type="carA" route="route06" depart="51" />
    <vehicle id="L_76" type="carA" route="route09" depart="51" />
    <vehicle id="L_77" type="carA" route="route06" depart="52" />
    <vehicle id="R_78" type="carA" route="route07" depart="52" />
    <vehicle id="S_79" type="carA" route="route05" depart="53" />
    <vehicle id="R_80" type="carA" route="route01" depart="54" />
    <vehicle id="R_81" type="carA" route="route07" depart="55" />
    <vehicle id="S_82" type="carA" route="route11" depart="55" />
    <vehicle id="R_83" type="carA" route="route10" depart="56" />
    <vehicle id="S_84" type="carA" route="route02" depart="57" />
    <vehicle id="S_85" type="carA" route="route02" depart="58" />
    <vehicle id="S_86" type="carA" route="route05" depart="59" />
    <vehicle id="S_87" type="carA" route="route08" depart="59" />
    <vehicle id="S_88" type="carA" route="route08" depart="60" />
    <vehicle id="S_89" type="carA" route="route11" depart="60" />
    <vehicle id="S_90" type="carA" route="route05" depart="61" />
    <vehicle id="S_91" type="carA" route="route11" depart="61" />
    <vehicle id="R_92" type="carA" route="route01" depart="62" />
    <vehicle id="R_93" type="carA" route="route04" depart="62" />
    <vehicle id="L_94" type="carA" route="route03" depart="63" />
    <vehicle id="S_95" type="carA" route="route05" depart="64" />
    <vehicle id="S_96" type="carA" route="route08" depart="64" />
    <vehicle id="R_97" type="carA" route="route10" depart="64" />
    <vehicle id="L_98" type="carA" route="route09" depart="65" />
    <vehicle id="S_99" type="carA" route="route08" depart="66" />
    <vehicle id="S_100" type="carA" route="route11" depart="66" />
    <vehicle id="L_101" type="carA" route="route06" depart="68" />
    <vehicle id="R_102" type="carA" route="route07" depart="68" />
    <vehicle id="R_103" type="carA" route="route04" depart="69" />
    <vehicle id="R_104" type="carA" route="route01" depart="70" />
    <vehicle id="L_105" type="carA" route="route09" depart="71" />
    <vehicle id="R_106" type="carA" route="route10" depart="71" />
    <vehicle id="L_107" type="carA" route="route06" depart="73" />
    <vehicle id="R_108" type="carA" route="route01" depart="74" />
    <vehicle id="R_109" type="carA" route="route10" depart="75" />
    <vehicle id="R_110" type="carA" route="route01" depart="76" />
    <vehicle id="L_111" type="carA" route="route12" depart="76" />
    <vehicle id="S_112" type="carA" route="route05" depart="77" />
    <vehicle id="L_113" type="carA" route="route12" depart="77" />
    <vehicle id="S_114" type="carA" route="route02" depart="78" />
    <vehicle id="L_115" type="carA" route="route09" depart="78" />
    <vehicle id="S_116" type="carA" route="route11" depart="78" />
    <vehicle id="R_117" type="carA" route="route04" depart="79" />
    <vehicle id="R_118" type="carA" route="route07" depart="83" />
    <vehicle id="R_119" type="carA" route="route10" depart="84" />
    <vehicle id="R_120" type="carA" route="route01" depart="85" />
    <vehicle id="L_121" type="carA" route="route06" depart="85" />
    <vehicle id="R_122" type="carA" route="route07" depart="85" />
    <vehicle id="L_123" type="carA" route="route06" depart="86" />
    <vehicle id="L_124" type="carA" route="route03" depart="87" />
    <vehicle id="L_125" type="carA" route="route12" depart="88" />
    <vehicle id="R_126" type="carA" route="route10" depart="90" />
    <vehicle id="L_127" type="carA" route="route06" depart="91" />
    <vehicle id="L_128" type="carA" route="route03" depart="92" />
    <vehicle id="L_129" type="carA" route="route06" depart="92" />
    <vehicle id="L_130" type="carA" route="route09" depart="92" />
    <vehicle id="L_131" type="carA" route="route03" depart="93" />
    <vehicle id="L_132" type="carA" route="route06" depart="93" />
    <vehicle id="L_133" type="carA" route="route09" depart="93" />
    <vehicle id="R_134" type="carA" route="route10" depart="93" />
    <vehicle id="R_135" type="carA" route="route01" depart="95" />
    <vehicle id="L_136" type="carA" route="route06" depart="95" />
    <vehicle id="R_137" type="carA" route="route04" depart="97" />
    <vehicle id="R_138" type="carA" route="route07" depart="97" />
    <vehicle id="S_139" type="carA" route="route05" depart="98" />
    <vehicle id="L_140" type="carA" route="route12" depart="98" />
    <vehicle id="S_141" type="carA" route="route05" depart="99" />
    <vehicle id="R_142" type="carA" route="route10" depart="99" />
    <vehicle id="S_143" type="carA" route="route02" depart="100" />
    <vehicle id="S_144" type="carA" route="route02" depart="101" />
    <vehicle id="S_145" type="carA" route="route08" depart="101" />
    <vehicle id="S_146" type="carA" route="route05" depart="102" />
    <vehicle id="S_147" type="carA" route="route08" depart="104" />
    <vehicle id="S_148" type="carA" route="route05" depart="106" />
    <vehicle id="S_149" type="carA" route="route08" depart="107" />
    <vehicle id="S_150" type="carA" route="route02" depart="108" />
    <vehicle id="L_151" type="carA" route="route06" depart="108" />
    <vehicle id="S_152" type="carA" route="route02" depart="109" />
    <vehicle id="R_153" type="carA" route="route04" depart="109" />
    <vehicle id="R_154" type="carA" route="route07" depart="110" />
    <vehicle id="S_155" type="carA" route="route02" depart="111" />
    <vehicle id="R_156" type="carA" route="route10" depart="112" />
    <vehicle id="L_157" type="carA" route="route06" depart="113" />
    <vehicle id="S_158" type="carA" route="route08" depart="114" />
    <vehicle id="R_159" type="carA" route="route10" depart="114" />
    <vehicle id="R_160" type="carA" route="route01" depart="115" />
    <vehicle id="L_161" type="carA" route="route06" depart="115" />
    <vehicle id="R_162" type="carA" route="route10" depart="115" />
    <vehicle id="R_163" type="carA" route="route01" depart="117" />
    <vehicle id="R_164" type="carA" route="route04" depart="117" />
    <vehicle id="R_165" type="carA" route="route07" depart="117" />
    <vehicle id="S_166" type="carA" route="route02" depart="118" />
    <vehicle id="S_167" type="carA" route="route11" depart="118" />
    <vehicle id="R_168" type="carA" route="route04" depart="120" />
    <vehicle id="L_169" type="carA" route="route09" depart="121" />
    <vehicle id="R_170" type="carA" route="route10" depart="121" />
    <vehicle id="S_171" type="carA" route="route05" depart="122" />
    <vehicle id="S_172" type="carA" route="route08" depart="122" />
    <vehicle id="L_173" type="carA" route="route06" depart="123" />
    <vehicle id="L_174" type="carA" route="route09" depart="124" />
    <vehicle id="R_175" type="carA" route="route07" depart="125" />
    <vehicle id="R_176" type="carA" route="route01" depart="126" />
    <vehicle id="R_177" type="carA" route="route04" depart="126" />
    <vehicle id="R_178" type="carA" route="route01" depart="127" />
    <vehicle id="R_179" type="carA" route="route10" depart="130" />
    <vehicle id="S_180" type="carA" route="route02" depart="131" />
    <vehicle id="R_181" type="carA" route="route07" depart="131" />
    <vehicle id="R_182" type="carA" route="route01" depart="133" />
    <vehicle id="R_183" type="carA" route="route07" depart="133" />
    <vehicle id="S_184" type="carA" route="route11" depart="133" />
    <vehicle id="R_185" type="carA" route="route04" depart="135" />
    <vehicle id="L_186" type="carA" route="route09" depart="136" />
    <vehicle id="L_187" type="carA" route="route06" depart="137" />
    <vehicle id="S_188" type="carA" route="route08" depart="137" />
    <vehicle id="S_189" type="carA" route="route02" depart="138" />
    <vehicle id="S_190" type="carA" route="route05" depart="138" />
    <vehicle id="R_191" type="carA" route="route04" depart="139" />
    <vehicle id="L_192" type="carA" route="route06" depart="141" />
    <vehicle id="L_193" type="carA" route="route06" depart="142" />
    <vehicle id="S_194" type="carA" route="route05" depart="143" />
    <vehicle id="R_195" type="carA" route="route10" depart="143" />
    <vehicle id="S_196" type="carA" route="route08" depart="144" />
    <vehicle id="S_197" type="carA" route="route05" depart="145" />
    <vehicle id="S_198" type="carA" route="route05" depart="146" />
    <vehicle id="L_199" type="carA" route="route12" depart="146" />
    <vehicle id="S_200" type="carA" route="route05" depart="148" />
    <vehicle id="R_201" type="carA" route="route07" depart="149" />
    <vehicle id="L_202" type="carA" route="route09" depart="150" />
    <vehicle id="R_203" type="carA" route="route10" depart="151" />
    <vehicle id="S_204" type="carA" route="route08" depart="152" />
    <vehicle id="S_205" type="carA" route="route11" depart="152" />
    <vehicle id="L_206" type="carA" route="route12" depart="154" />
    <vehicle id="L_207" type="carA" route="route06" depart="157" />
    <vehicle id="S_208" type="carA" route="route08" depart="159" />
    <vehicle id="R_209" type="carA" route="route04" depart="160" />
    <vehicle id="L_210" type="carA" route="route12" depart="161" />
    <vehicle id="S_211" type="carA" route="route02" depart="163" />
    <vehicle id="L_212" type="carA" route="route06" depart="163" />
    <vehicle id="L_213" type="carA" route="route09" depart="163" />
    <vehicle id="R_214" type="carA" route="route04" depart="164" />
    <vehicle id="S_215" type="carA" route="route02" depart="165" />
    <vehicle id="L_216" type="carA" route="route06" depart="165" />
    <vehicle id="R_217" type="carA" route="route07" depart="165" />
    <vehicle id="S_218" type="carA" route="route11" depart="165" />
    <vehicle id="L_219" type="carA" route="route09" depart="166" />
    <vehicle id="S_220" type="carA" route="route11" depart="167" />
    <vehicle id="L_221" type="carA" route="route03" depart="168" />
    <vehicle id="L_222" type="carA" route="route09" depart="168" />
    <vehicle id="S_223" type="carA" route="route05" depart="169" />
    <vehicle id="L_224" type="carA" route="route12" depart="169" />
    <vehicle id="L_225" type="carA" route="route09" depart="170" />
    <vehicle id="S_226" type="carA" route="route05" depart="171" />
    <vehicle id="L_227" type="carA" route="route06" depart="174" />
    <vehicle id="R_228" type="carA" route="route01" depart="175" />
    <vehicle id="R_229" type="carA" route="route07" depart="175" />
    <vehicle id="S_230" type="carA" route="route02" depart="177" />
    <vehicle id="S_231" type="carA" route="route05" depart="178" />
    <vehicle id="S_232" type="carA" route="route08" depart="178" />
    <vehicle id="L_233" type="carA" route="route09" depart="180" />
    <vehicle id="R_234" type="carA" route="route04" depart="182" />
    <vehicle id="S_235" type="carA" route="route08" depart="182" />
    <vehicle id="R_236" type="carA" route="route04" depart="183" />
    <vehicle id="L_237" type="carA" route="route03" depart="184" />
    <vehicle id="S_238" type="carA" route="route05" depart="184" />
    <vehicle id="L_239" type="carA" route="route09" depart="184" />
    <vehicle id="S_240" type="carA" route="route11" depart="184" />
    <vehicle id="L_241" type="carA" route="route03" depart="185" />
    <vehicle id="L_242" type="carA" route="route09" depart="186" />
    <vehicle id="L_243" type="carA" route="route12" depart="186" />
    <vehicle id="L_244" type="carA" route="route09" depart="187" />
    <vehicle id="S_245" type="carA" route="route08" depart="188" />
    <vehicle id="R_246" type="carA" route="route10" depart="189" />
    <vehicle id="S_247" type="carA" route="route05" depart="191" />
    <vehicle id="R_248" type="carA" route="route07" depart="191" />
    <vehicle id="S_249" type="carA" route="route02" depart="192" />
    <vehicle id="R_250" type="carA" route="route04" depart="192" />
    <vehicle id="R_251" type="carA" route="route10" depart="192" />
    <vehicle id="S_252" type="carA" route="route05" depart="193" />
    <vehicle id="R_253" type="carA" route="route07" depart="193" />
    <vehicle id="R_254" type="carA" route="route10" depart="193" />
    <vehicle id="R_255" type="carA" route="route04" depart="194" />
    <vehicle id="R_256" type="carA" route="route10" depart="194" />
    <vehicle id="R_257" type="carA" route="route01" depart="195" />
    <vehicle id="L_258" type="carA" route="route12" depart="196" />
    <vehicle id="S_259" type="carA" route="route05" depart="197" />
    <vehicle id="L_260" type="carA" route="route09" depart="198" />
    <vehicle id="R_261" type="carA" route="route10" depart="199" />
    <vehicle id="R_262" type="carA" route="route04" depart="200" />
    <vehicle id="S_263" type="carA" route="route02" depart="201" />
    <vehicle id="S_264" type="carA" route="route02" depart="202" />
    <vehicle id="L_265" type="carA" route="route06" depart="203" />
    <vehicle id="L_266" type="carA" route="route09" depart="203" />
    <vehicle id="L_267" type="carA" route="route06" depart="204" />
    <vehicle id="S_268" type="carA" route="route02" depart="205" />
    <vehicle id="S_269" type="carA" route="route05" depart="205" />
    <vehicle id="R_270" type="carA" route="route07" depart="205" />
    <vehicle id="R_271" type="carA" route="route01" depart="207" />
    <vehicle id="L_272" type="carA" route="route09" depart="209" />
    <vehicle id="R_273" type="carA" route="route10" depart="209" />
    <vehicle id="S_274" type="carA" route="route08" depart="212" />
    <vehicle id="R_275" type="carA" route="route01" depart="213" />
    <vehicle id="L_276" type="carA" route="route09" depart="213" />
    <vehicle id="S_277" type="carA" route="route11" depart="213" />
    <vehicle id="L_278" type="carA" route="route09" depart="214" />
    <vehicle id="S_279" type="carA" route="route11" depart="214" />
    <vehicle id="L_280" type="carA" route="route03" depart="215" />
    <vehicle id="R_281" type="carA" route="route07" depart="216" />
    <vehicle id="L_282" type="carA" route="route12" depart="216" />
    <vehicle id="L_283" type="carA" route="route06" depart="217" />
    <vehicle id="S_284" type="carA" route="route02" depart="218" />
    <vehicle id="L_285" type="carA" route="route06" depart="218" />
    <vehicle id="S_286" type="carA" route="route08" depart="218" />
    <vehicle id="L_287" type="carA" route="route06" depart="219" />
    <vehicle id="R_288" type="carA" route="route10" depart="219" />
    <vehicle id="R_289" type="carA" route="route01" depart="220" />
    <vehicle id="R_290" type="carA" route="route04" depart="220" />
    <vehicle id="S_291" type="carA" route="route08" depart="220" />
    <vehicle id="L_292" type="carA" route="route12" depart="220" />
    <vehicle id="S_293" type="carA" route="route02" depart="222" />
    <vehicle id="R_294" type="carA" route="route04" depart="222" />
    <vehicle id="R_295" type="carA" route="route01" depart="224" />
    <vehicle id="S_296" type="carA" route="route05" depart="224" />
    <vehicle id="S_297" type="carA" route="route05" depart="225" />
    <vehicle id="L_298" type="carA" route="route09" depart="225" />
    <vehicle id="L_299" type="carA" route="route06" depart="226" />
    <vehicle id="R_300" type="carA" route="route07" depart="226" />
    <vehicle id="L_301" type="carA" route="route03" depart="227" />
    <vehicle id="R_302" type="carA" route="route07" depart="228" />
    <vehicle id="L_303" type="carA" route="route12" depart="228" />
    <vehicle id="S_304" type="carA" route="route08" depart="229" />
    <vehicle id="R_305" type="carA" route="route04" depart="232" />
    <vehicle id="R_306" type="carA" route="route10" depart="232" />
    <vehicle id="L_307" type="carA" route="route03" depart="233" />
    <vehicle id="L_308" type="carA" route="route06" depart="233" />
    <vehicle id="S_309" type="carA" route="route08" depart="233" />
    <vehicle id="S_310" type="carA" route="route11" depart="233" />
    <vehicle id="L_311" type="carA" route="route09" depart="236" />
    <vehicle id="R_312" type="carA" route="route10" depart="236" />
    <vehicle id="S_313" type="carA" route="route02" depart="237" />
    <vehicle id="R_314" type="carA" route="route01" depart="238" />
    <vehicle id="L_315" type="carA" route="route03" depart="239" />
    <vehicle id="L_316" type="carA" route="route06" depart="239" />
    <vehicle id="R_317" type="carA" route="route07" depart="240" />
    <vehicle id="S_318" type="carA" route="route02" depart="241" />
    <vehicle id="L_319" type="carA" route="route09" depart="242" />
    <vehicle id="L_320" type="carA" route="route03" depart="244" />
    <vehicle id="R_321" type="carA" route="route01" depart="247" />
    <vehicle id="R_322" type="carA" route="route10" depart="247" />
    <vehicle id="S_323" type="carA" route="route02" depart="248" />
    <vehicle id="S_324" type="carA" route="route05" depart="248" />
    <vehicle id="L_325" type="carA" route="route03" depart="249" />
    <vehicle id="L_326" type="carA" route="route09" depart="249" />
    <vehicle id="S_327" type="carA" route="route11" depart="249" />
    <vehicle id="L_328" type="carA" route="route09" depart="250" />
    <vehicle id="L_329" type="carA" route="route06" depart="251" />
    <vehicle id="S_330" type="carA" route="route08" depart="251" />
    <vehicle id="S_331" type="carA" route="route05" depart="252" />
    <vehicle id="L_332" type="carA" route="route03" depart="254" />
    <vehicle id="R_333" type="carA" route="route04" depart="255" />
    <vehicle id="S_334" type="carA" route="route05" depart="256" />
    <vehicle id="S_335" type="carA" route="route11" depart="256" />
    <vehicle id="S_336" type="carA" route="route02" depart="257" />
    <vehicle id="L_337" type="carA" route="route06" depart="257" />
    <vehicle id="L_338" type="carA" route="route12" depart="257" />
    <vehicle id="R_339" type="carA" route="route04" depart="258" />
    <vehicle id="S_340" type="carA" route="route11" depart="258" />
    <vehicle id="S_341" type="carA" route="route05" depart="259" />
    <vehicle id="R_342" type="carA" route="route04" depart="260" />
    <vehicle id="S_343" type="carA" route="route02" depart="261" />
    <vehicle id="R_344" type="carA" route="route07" depart="261" />
    <vehicle id="S_345" type="carA" route="route11" depart="261" />
    <vehicle id="R_346" type="carA" route="route10" depart="262" />
    <vehicle id="R_347" type="carA" route="route01" depart="263" />
    <vehicle id="S_348" type="carA" route="route02" depart="264" />
    <vehicle id="L_349" type="carA" route="route09" depart="264" />
    <vehicle id="R_350" type="carA" route="route10" depart="264" />
    <vehicle id="L_351" type="carA" route="route09" depart="265" />
    <vehicle id="S_352" type="carA" route="route02" depart="266" />
    <vehicle id="L_353" type="carA" route="route06" depart="266" />
    <vehicle id="R_354" type="carA" route="route04" depart="268" />
    <vehicle id="R_355" type="carA" route="route01" depart="270" />
    <vehicle id="S_356" type="carA" route="route11" depart="270" />
    <vehicle id="S_357" type="carA" route="route02" depart="272" />
    <vehicle id="R_358" type="carA" route="route07" depart="272" />
    <vehicle id="R_359" type="carA" route="route10" depart="272" />
    <vehicle id="S_360" type="carA" route="route02" depart="274" />
    <vehicle id="L_361" type="carA" route="route06" depart="274" />
    <vehicle id="R_362" type="carA" route="route01" depart="275" />
    <vehicle id="L_363" type="carA" route="route06" depart="278" />
    <vehicle id="R_364" type="carA" route="route01" depart="279" />
    <vehicle id="L_365" type="carA" route="route09" depart="279" />
    <vehicle id="S_366" type="carA" route="route08" depart="280" />
    <vehicle id="S_367" type="carA" route="route05" depart="281" />
    <vehicle id="L_368" type="carA" route="route12" depart="281" />
    <vehicle id="L_369" type="carA" route="route03" depart="283" />
    <vehicle id="R_370" type="carA" route="route07" depart="283" />
    <vehicle id="R_371" type="carA" route="route01" depart="287" />
    <vehicle id="R_372" type="carA" route="route04" depart="288" />
    <vehicle id="S_373" type="carA" route="route02" depart="289" />
    <vehicle id="S_374" type="carA" route="route08" depart="289" />
    <vehicle id="S_375" type="carA" route="route08" depart="290" />
    <vehicle id="L_376" type="carA" route="route03" depart="291" />
    <vehicle id="L_377" type="carA" route="route06" depart="291" />
    <vehicle id="R_378" type="carA" route="route04" depart="293" />
    <vehicle id="S_379" type="carA" route="route08" depart="293" />
    <vehicle id="L_380" type="carA" route="route12" depart="293" />
    <vehicle id="R_381" type="carA" route="route01" depart="295" />
    <vehicle id="S_382" type="carA" route="route08" depart="296" />
    <vehicle id="S_383" type="carA" route="route08" depart="298" />
    <vehicle id="R_384" type="carA" route="route04" depart="299" />
    <vehicle id="R_385" type="carA" route="route07" depart="299" />
    <vehicle id="S_386" type="carA" route="route11" depart="299" />
    <vehicle id="L_387" type="carA" route="route03" depart="301" />
    <vehicle id="R_388" type="carA" route="route07" depart="301" />
    <vehicle id="S_389" type="carA" route="route05" depart="302" />
    <vehicle id="L_390" type="carA" route="route09" depart="302" />
    <vehicle id="R_391" type="carA" route="route01" depart="304" />
    <vehicle id="S_392" type="carA" route="route05" depart="306" />
    <vehicle id="R_393" type="carA" route="route04" depart="307" />
    <vehicle id="L_394" type="carA" route="route09" depart="307" />
    <vehicle id="L_395" type="carA" route="route03" depart="308" />
    <vehicle id="S_396" type="carA" route="route05" depart="308" />
    <vehicle id="L_397" type="carA" route="route06" depart="309" />
    <vehicle id="L_398" type="carA" route="route12" depart="309" />
    <vehicle id="R_399" type="carA" route="route01" depart="310" />
    <vehicle id="R_400" type="carA" route="route04" depart="310" />
    <vehicle id="S_401" type="carA" route="route02" depart="311" />
    <vehicle id="R_402" type="carA" route="route04" depart="311" />
    <vehicle id="S_403" type="carA" route="route11" depart="311" />
    <vehicle id="R_404" type="carA" route="route10" depart="312" />
    <vehicle id="L_405" type="carA" route="route12" depart="313" />
    <vehicle id="L_406" type="carA" route="route03" depart="314" />
    <vehicle id="L_407" type="carA" route="route06" depart="317" />
    <vehicle id="L_408" type="carA" route="route09" depart="317" />
    <vehicle id="S_409" type="carA" route="route02" depart="318" />
    <vehicle id="S_410" type="carA" route="route08" depart="318" />
    <vehicle id="L_411" type="carA" route="route03" depart="320" />
    <vehicle id="R_412" type="carA" route="route07" depart="320" />
    <vehicle id="L_413" type="carA" route="route12" depart="320" />
    <vehicle id="L_414" type="carA" route="route12" depart="321" />
    <vehicle id="S_415" type="carA" route="route02" depart="322" />
    <vehicle id="L_416" type="carA" route="route09" depart="322" />
    <vehicle id="S_417" type="carA" route="route08" depart="323" />
    <vehicle id="L_418" type="carA" route="route09" depart="325" />
    <vehicle id="L_419" type="carA" route="route06" depart="327" />
    <vehicle id="S_420" type="carA" route="route02" depart="328" />
    <vehicle id="S_421" type="carA" route="route05" depart="328" />
    <vehicle id="R_422" type="carA" route="route07" depart="328" />
    <vehicle id="R_423" type="carA" route="route10" depart="328" />
    <vehicle id="R_424" type="carA" route="route07" depart="330" />
    <vehicle id="R_425" type="carA" route="route10" depart="330" />
    <vehicle id="R_426" type="carA" route="route07" depart="331" />
    <vehicle id="R_427" type="carA" route="route10" depart="333" />
    <vehicle id="S_428" type="carA" route="route05" depart="334" />
    <vehicle id="R_429" type="carA" route="route07" depart="334" />
    <vehicle id="S_430" type="carA" route="route11" depart="334" />
    <vehicle id="L_431" type="carA" route="route03" depart="335" />
    <vehicle id="R_432" type="carA" route="route10" depart="335" />
    <vehicle id="R_433" type="carA" route="route07" depart="337" />